[TITLE]
;;Project Title/Notes
INP file created on 25.01.2018 14:02:28 by bhawu with inpPINS version 0.0.3.1
Title/Notes:

[OPTIONS]
;;Option             Value
FLOW_UNITS           LPS
INFILTRATION         GREEN_AMPT
FLOW_ROUTING         DYNWAVE
LINK_OFFSETS         DEPTH
MIN_SLOPE            0.005
ALLOW_PONDING        NO
SKIP_STEADY_STATE    NO

START_DATE           08/09/2017
START_TIME           12:00:00
REPORT_START_DATE    08/09/2017
REPORT_START_TIME    12:00:00
END_DATE             08/14/2017
END_TIME             23:59:00
SWEEP_START          08/09
SWEEP_END            08/14
DRY_DAYS             20
REPORT_STEP          00:01:00
WET_STEP             00:05:00
DRY_STEP             01:00:00
ROUTING_STEP         0:00:30 

INERTIAL_DAMPING     PARTIAL
NORMAL_FLOW_LIMITED  BOTH
FORCE_MAIN_EQUATION  D-W
VARIABLE_STEP        0.75
LENGTHENING_STEP     0
MIN_SURFAREA         1.14
MAX_TRIALS           8
HEAD_TOLERANCE       0.0015
SYS_FLOW_TOL         5
LAT_FLOW_TOL         5
MINIMUM_STEP         0.5
THREADS              4

[EVAPORATION]
;;Data Source    Parameters
;;-------------- ----------------
CONSTANT         0.0
DRY_ONLY         NO

[RAINGAGES]
;;Name           Format    Interval SCF      Source    
;;-------------- --------- ------ ------ ----------
rg               VOLUME    0:05     1.0      FILE       "9-15aug.dat"    rg         MM   

[SUBCATCHMENTS]
;;Name           Rain Gage        Outlet           Area     %Imperv  Width    %Slope   CurbLen  SnowPack        
;;-------------- ---------------- ---------------- -------- -------- -------- -------- -------- ----------------
Street_0         rg               36L40            0.01401481 111.278233770165 3        2.009070422 0                        
Street_1         rg               36Q80            0.088068459 119.124976669741 3        3.971275182 0                        
Street_2         rg               36R65            0.086711456 108.567524803828 5        4.647386086 0                        
Street_3         rg               36L75            0.114316962 110.843383582482 4        3.909230417 0                        
Street_4         rg               36L61            0.074337969 115.747243478946 3        3.294147519 0                        
Street_5         rg               36L59            0.027349837 103.524157261508 5        1.124344711 0                        
Street_6         rg               36L42            0.052185906 102.005761842589 5        1.286158907 0                        
Street_7         rg               36Q115           0.104185161 112.075981432881 5        2.504247073 0                        
Street_8         rg               36Q135           0.016349886 110.660863108031 3.3      4.590713055 0                        
Street_9         rg               36Q154           0.129038808 116.646750788073 5        1.502654713 0                        
Street_10        rg               36L91            0.075581244 110.392390314412 5        4.920034971 0                        
Street_11        rg               36Q85            0.033736858 110.782272398389 5        2.676962581 0                        
Street_12        rg               36Q104           0.029530432 108.398206713028 5        2.314769976 0                        
Street_13        rg               36Q80            0.024001785 110.818823036703 5        3.102464764 0                        
Street_14        rg               36Q41            0.029291552 111.485870330876 3        4.594849783 0                        
Street_15        rg               36Q68            0.010677414 109.004547660878 5        2.929315363 0                        
Street_16        rg               36Q62            0.056695051 112.938630144944 3        1.627326911 0                        
Street_17        rg               36Q34            0.062450105 115.780022066037 5        2.438491311 0                        
72               rg               36L40            0.326589478 12.6276861761883 50.47415987 3.273068177 0                        
21               rg               36L42            0.16769512 0.0730099681601794 31.28872738 2.372671509 0                        
71               rg               36L49            0.316149498 15.0768518517036 69.34967048 3.209598445 0                        
146              rg               36L53            0.207392125 14.4344428502803 41.94780014 0.084263631 0                        
80               rg               36L59            0.234995888 6.11690169572541 61.19893884 0.101011238 0                        
9                rg               36L61            0.954807728 16.6955521145494 106.3128811 1.118314986 0                        
129              rg               36L61            0.432947499 16.7479016139382 61.31409666 0.634418341 0                        
153              rg               36L73            0.420388639 19.4285149368245 58.39317914 2.967589766 0                        
69               rg               36L91            0.08146388 2.97804964464625 31.98395871 1.173348263 0                        
150              rg               36M12            1.76400583 15.2396759489537 163.545148 2.966000033 0                        
67               rg               36Q100           0.190235455 22.0789251656926 39.24222142 1.084722684 0                        
170              rg               36Q100           0.087353555 1.56800134878055 31.59864281 2.42262516 0                        
33               rg               36Q111           0.165990606 3.98988725255544 33.31942376 0.217178328 0                        
31               rg               36Q112           0.265039778 4.20842414444323 61.0118344 2.551098279 0                        
70               rg               36Q112           0.275046185 8.90232944769023 56.19331861 3.721095283 0                        
27               rg               36Q115           0.361059258 4.35768825064275 69.5050754 2.28176903 0                        
29               rg               36Q119           0.14847348 8.15874940400493 32.34636802 1.530878132 0                        
28               rg               36Q122           0.856481518 8.44938213190942 100.3807874 2.270715396 0                        
61               rg               36Q135           0.382682279 15.3126771904906 71.61958693 1.711598886 0                        
571              rg               36Q145           0.061932384 6.54418165160385 29.86164597 3.627180273 0                        
661              rg               36Q146           0.528754767 1.58664345591297 66.04499796 0.018786159 0                        
556              rg               36Q150           0.156372962 20.4698037092802 33.58026774 2.375430054 0                        
547              rg               36Q174           0.39746347 7.85545522381894 64.96683617 3.300488382 0                        
562              rg               36Q175           0.800021863 19.9209407845424 69.59668556 0.726771214 0                        
532              rg               36Q181           0.306359819 22.8200712251447 65.90043071 2.028165085 0                        
289              rg               36Q34            0.286956336 10.7142416507383 40.55390285 3.323146742 0                        
2                rg               36Q38            0.580371346 13.2691403259897 88.66296881 2.434647285 0                        
7                rg               36Q38            0.161761064 8.74045260616252 38.56721187 0.391262483 0                        
1                rg               36Q41            0.478036249 14.6892411532735 58.28546332 3.402768752 0                        
6                rg               36Q45            1.063940346 13.7852905803477 133.8525132 3.796129117 0                        
255              rg               36Q45            0.656389991 14.1288907483019 101.9676013 1.393346059 0                        
19               rg               36Q52            0.258452415 16.1984150981372 35.68406822 1.189333336 0                        
60               rg               36Q54            0.228076005 21.4249224358095 39.76126263 2.416832354 0                        
39               rg               36Q58            0.176907372 3.60101727456207 42.27845339 1.420348634 0                        
112              rg               36Q60            0.058365256 3.91375781206195 22.04900958 2.441539501 0                        
76               rg               36Q62            1.128468316 3.4398204389706 82.75491096 0.96749861 0                        
113              rg               36Q66            0.176062007 16.1799561917234 50.51389275 1.018119517 0                        
167              rg               36Q68            0.753059455 19.6191195806287 74.55404954 3.20514695 0                        
41               rg               36Q76            0.175690404 14.2723868873201 44.12636531 2.709225001 0                        
166              rg               36Q80            0.241273576 14.4282043307251 41.06842147 3.045567994 0                        
64               rg               36Q85            0.116487817 12.1436859344557 43.88354796 3.088613713 0                        
58               rg               36Q87            0.467596832 3.83545329058346 51.23960636 1.78534502 0                        
179              rg               36Q94            0.085481591 13.032793163241 33.02161446 1.259016564 0                        
223              rg               36R69            0.303520979 23.3993888568608 60.69421767 2.323927543 0                        
245              rg               36R70            0.230538911 12.6330818560358 58.64948223 3.096180553 0                        
177              rg               36R75            0.050042704 3.93804815657371 17.51744984 2.739281444 0                        
221              rg               36R79            0.560137208 14.6562499789633 81.91669366 2.761583617 0                        
222              rg               36R79            0.447843074 8.79761394578503 81.21018478 3.992217799 0                        
180              rg               36R99            0.470524615 18.4182557543546 60.0307785 3.8685642 0                        

[SUBAREAS]
;;Subcatchment   N-Imperv   N-Perv     S-Imperv   S-Perv     PctZero    RouteTo    PctRouted 
;;-------------- ---------- ---------- ---------- ---------- ---------- ---------- ----------
Street_0         0.011      0.1        2          5          25         OUTLET    
Street_1         0.011      0.1        2          5          25         OUTLET    
Street_2         0.011      0.1        2          5          25         OUTLET    
Street_3         0.011      0.1        2          5          25         OUTLET    
Street_4         0.011      0.1        2          5          25         OUTLET    
Street_5         0.011      0.1        2          5          25         OUTLET    
Street_6         0.011      0.1        2          5          25         OUTLET    
Street_7         0.011      0.1        2          5          25         OUTLET    
Street_8         0.011      0.1        2          5          25         OUTLET    
Street_9         0.011      0.1        2          5          25         OUTLET    
Street_10        0.011      0.1        2          5          25         OUTLET    
Street_11        0.011      0.1        2          5          25         OUTLET    
Street_12        0.011      0.1        2          5          25         OUTLET    
Street_13        0.011      0.1        2          5          25         OUTLET    
Street_14        0.011      0.1        2          5          25         OUTLET    
Street_15        0.011      0.1        2          5          25         OUTLET    
Street_16        0.011      0.1        2          5          25         OUTLET    
Street_17        0.011      0.1        2          5          25         OUTLET    
72               0.015      0.1        1.9        5          25         OUTLET    
21               0.015      0.1        1.9        5          25         OUTLET    
71               0.015      0.1        1.9        5          25         OUTLET    
146              0.015      0.1        1.9        5          25         OUTLET    
80               0.015      0.1        1.9        5          25         OUTLET    
9                0.015      0.1        2.21       5          25         OUTLET    
129              0.015      0.1        1.9        5          25         OUTLET    
153              0.015      0.1        1.9        5          25         OUTLET    
69               0.015      0.1        1.9        5          25         OUTLET    
150              0.015      0.1        1.9        5          25         OUTLET    
67               0.015      0.1        1.9        5          25         OUTLET    
170              0.015      0.1        1.9        5          25         OUTLET    
33               0.015      0.1        1.9        5          25         OUTLET    
31               0.015      0.1        1.9        5          25         OUTLET    
70               0.015      0.1        1.9        5          25         OUTLET    
27               0.015      0.1        1.9        5          25         OUTLET    
29               0.015      0.1        2.21       5          25         OUTLET    
28               0.015      0.1        2.21       5          25         OUTLET    
61               0.015      0.1        1.9        5          25         OUTLET    
571              0.015      0.1        2.21       5          25         OUTLET    
661              0.015      0.1        2.21       5          25         OUTLET    
556              0.015      0.1        2.21       5          25         OUTLET    
547              0.015      0.1        2.21       5          25         OUTLET    
562              0.015      0.1        2.21       5          25         OUTLET    
532              0.015      0.1        2.21       5          25         OUTLET    
289              0.015      0.1        2.21       5          25         OUTLET    
2                0.015      0.1        2.21       5          25         OUTLET    
7                0.015      0.1        2.21       5          25         OUTLET    
1                0.015      0.1        2.21       5          25         OUTLET    
6                0.015      0.1        2.21       5          25         OUTLET    
255              0.015      0.1        2.21       5          25         OUTLET    
19               0.015      0.1        2.21       5          25         OUTLET    
60               0.015      0.1        1.9        5          25         OUTLET    
39               0.015      0.1        1.9        5          25         OUTLET    
112              0.015      0.1        1.9        5          25         OUTLET    
76               0.015      0.1        1.9        5          25         OUTLET    
113              0.015      0.1        1.9        5          25         OUTLET    
167              0.015      0.1        1.9        5          25         OUTLET    
41               0.015      0.1        1.9        5          25         OUTLET    
166              0.015      0.1        1.9        5          25         OUTLET    
64               0.015      0.1        1.9        5          25         OUTLET    
58               0.015      0.1        1.9        5          25         OUTLET    
179              0.015      0.1        1.9        5          25         OUTLET    
223              0.015      0.1        1.9        5          25         OUTLET    
245              0.015      0.1        2.21       5          25         OUTLET    
177              0.015      0.1        1.9        5          25         OUTLET    
221              0.015      0.1        2.21       5          25         OUTLET    
222              0.015      0.1        1.9        5          25         OUTLET    
180              0.015      0.1        1.9        5          25         OUTLET    

[INFILTRATION]
;;Subcatchment   Suction    Ksat       IMD       
;;-------------- ---------- ---------- ----------
Street_0         3.0        0.5        4         
Street_1         3.0        0.5        4         
Street_2         3.0        0.5        4         
Street_3         3.0        0.5        4         
Street_4         3.0        0.5        4         
Street_5         3.0        0.5        4         
Street_6         3.0        0.5        4         
Street_7         3.0        0.5        4         
Street_8         3.0        0.5        4         
Street_9         3.0        0.5        4         
Street_10        3.0        0.5        4         
Street_11        3.0        0.5        4         
Street_12        3.0        0.5        4         
Street_13        3.0        0.5        4         
Street_14        3.0        0.5        4         
Street_15        3.0        0.5        4         
Street_16        3.0        0.5        4         
Street_17        3.0        0.5        4         
72               177.8      5          0.33      
21               177.8      5          0.33      
71               177.8      5          0.33      
146              177.8      5          0.33      
80               177.8      5          0.33      
9                177.8      5          0.33      
129              177.8      5          0.33      
153              177.8      5          0.33      
69               177.8      5          0.33      
150              177.8      5          0.33      
67               177.8      5          0.33      
170              177.8      5          0.33      
33               177.8      5          0.33      
31               177.8      5          0.33      
70               177.8      5          0.33      
27               177.8      5          0.33      
29               177.8      5          0.33      
28               177.8      5          0.33      
61               177.8      5          0.33      
571              177.8      5          0.33      
661              177.8      5          0.33      
556              177.8      5          0.33      
547              177.8      5          0.33      
562              177.8      5          0.33      
532              177.8      5          0.33      
289              177.8      5          0.33      
2                177.8      5          0.33      
7                177.8      5          0.33      
1                177.8      5          0.33      
6                177.8      5          0.33      
255              177.8      5          0.33      
19               177.8      5          0.33      
60               177.8      5          0.33      
39               177.8      5          0.33      
112              177.8      5          0.33      
76               177.8      5          0.33      
113              177.8      5          0.33      
167              177.8      5          0.33      
41               177.8      5          0.33      
166              177.8      5          0.33      
64               177.8      5          0.33      
58               177.8      5          0.33      
179              177.8      5          0.33      
223              177.8      5          0.33      
245              177.8      5          0.33      
177              177.8      5          0.33      
221              177.8      5          0.33      
222              177.8      5          0.33      
180              177.8      5          0.33      

[JUNCTIONS]
;;Name           Elevation  MaxDepth   InitDepth  SurDepth   Aponded   
;;-------------- ---------- ---------- ---------- ---------- ----------
36Q173           115.43     0          0          0          100       
36Q174           115.46     0          0          0          100       
36Q180           116.26     0          0          0          100       
36Q181           117.14     0          0          0          100       
36Q58            113.87     0          0          0          100       
36Q137           114.44     0          0          0          100       
36Q135           114.31     0          0          0          100       
36Q52            115.25     0          0          0          100       
36Q45            115.658    0          0          0          100       
36Q146           114.67     0          0          0          100       
36Q41            115.66     0          0          0          100       
36Q56            113.89     0          0          0          100       
36Q138           114.5      0          0          0          100       
36Q150           114.77     0          0          0          100       
36Q38            116.04     0          0          0          100       
36Q158           115.13     0          0          0          100       
36Q35            116.12     0          0          0          100       
36Q136           114.59     0          0          0          100       
36Q145           114.55     0          0          0          100       
36Q154           114.94     0          0          0          100       
36Q47            115.51     0          0          0          100       
36Q40            115.76     0          0          0          100       
36Q169           115.36     0          0          0          100       
36Q34            116.22     0          0          0          100       
36Q60            117.18     0          0          0          100       
36Q61            116.82     0          0          0          100       
36Q66            116.34     0          0          0          100       
36Q64            116.47     0          0          0          100       
36Q62            116.63     0          0          0          100       
36Q76            113.64     0          0          0          100       
36Q100           114.89     0          0          0          100       
36Q74            113.81     0          0          0          100       
36Q68            115.95     0          0          0          100       
36Q87            114.46     0          0          0          100       
36Q122           114.89     0          0          0          100       
36Q115           115.89     0          0          0          100       
36Q97            114.88     0          0          0          100       
36Q112           116.36     0          0          0          100       
36Q111           116.39     0          0          0          100       
36L61            115.23     0          0          0          100       
36L53            115.84     0          0          0          100       
36L42            115.65     0          0          0          100       
36L50            115.92     0          0          0          100       
36L52            115.16     0          0          0          100       
36L91            115.75     0          0          0          100       
36L59            115.37     0          0          0          100       
36L45            115.6      0          0          0          100       
36Q113           116.26     0          0          0          100       
36Q119           115.68     0          0          0          100       
36Q104           115.47     0          0          0          100       
36L65            115.04     0          0          0          100       
36L57            115.45     0          0          0          100       
36L40            115.68     0          0          0          100       
36L49            116.06     0          0          0          100       
36Q94            115.37     0          0          0          100       
36R70            113.13     0          0          0          100       
36R44            112.768    0          0          0          100       
36R42            112.45     0          0          0          100       
36R77            115.51     0          0          0          100       
36R75            113.28     0          0          0          100       
36R79            115.73     0          0          0          100       
36Q192           113.57     0          0          0          100       
36M19            114.34     0          0          0          100       
36L75            114.84     0          0          0          100       
36M15            114.22     0          0          0          100       
36M12            113.82     0          0          0          100       
36Q82            113.62     0          0          0          100       
36R99            113.47     0          0          0          100       
36R65            113.45     0          0          0          100       
36R43            112.47     0          0          0          100       
36M3             113.53     0          0          0          100       
36L73            114.55     0          0          0          100       
36M28            112.77     0          0          0          100       
36L77            114.87     0          0          0          100       
36M11            113.58     0          0          0          100       
36M16            114.3      0          0          0          100       
36R41            112.42     0          0          0          100       
36M45            112.26     0          0          0          100       
36M47            112.22     0          0          0          100       
36Q85            114.39     0          0          0          100       
36M44            112.27     0          0          0          100       
36M46            112.38     0          0          0          100       
36R40            112.41     0          0          0          100       
36M27            113.128    0          0          0          100       
36R69            113.18     0          0          0          100       
36Q80            113.638    0          0          0          100       
36Q54            113.99     0          0          0          100       
36M4             113.52     0          0          0          100       
36Q175           115.67     0          0          0          100       

[OUTFALLS]
;;Name           Elevation  Type       Stage Data       Gated    Route To        
;;-------------- ---------- ---------- ---------------- -------- ----------------
36M74            112.218    FREE                        NO                       

[CONDUITS]
;;Name           From Node        To Node          Length     Roughness  InOffset   OutOffset  InitFlow   MaxFlow   
;;-------------- ---------------- ---------------- ---------- ---------- ---------- ---------- ---------- ----------
36Q112           36Q112           36Q113           40.55342914 0.015      0          0          0          0         
36Q35            36Q35            36Q38            32.05614774 0.015      0          0          0          0         
36Q52            36Q52            36Q54            29.94119544 0.015      0          0          0          0         
36Q56            36Q56            36Q58            46.65778342 0.015      0          0          0          0         
36Q115           36Q115           36Q119           27.84296825 0.015      0          0          0          0         
36Q154           36Q154           36Q150           44.93048588 0.015      0          0          0          0         
36Q145           36Q145           36Q138           33.96321987 0.015      0          0          0          0         
36Q136           36Q136           36Q135           16.49014953 0.015      0          0          0          0         
36Q34            36Q34            36Q35            9.317468715 0.015      0          0          0          0         
36Q135           36Q135           36Q54            53.15219731 0.015      0          0          0          0         
36Q122           36Q122           36Q137           36.93503254 0.015      0          0          0          0         
36Q113           36Q113           36Q115           44.29805087 0.015      0          0          0          0         
36Q40            36Q40            36Q41            15.56149058 0.015      0          0          0          0         
36Q137           36Q137           36Q135           13.3548298 0.015      0          0          0          0         
36Q58            36Q58            36Q74            41.62216108 0.015      0          0          0          0         
36Q181           36Q181           36Q180           22.87418129 0.015      0          0          0          0         
36Q138           36Q138           36Q137           33.95101069 0.015      0          0          0          0         
36Q150           36Q150           36Q146           27.43254831 0.015      0          0          0          0         
36Q169           36Q169           36Q158           9.404793792 0.015      0          0          0          0         
36Q175           36Q175           36Q174           11.77142065 0.015      0          0          0          0         
36Q45            36Q45            36Q47            13.38140998 0.015      0          0          0          0         
36Q47            36Q47            36Q52            32.08188786 0.015      0          0          0          0         
36Q119           36Q119           36Q122           10.86609686 0.015      0          0          0          0         
36Q38            36Q38            36Q40            30.0204499 0.015      0          0          0          0         
36Q41            36Q41            36Q45            27.02138376 0.015      0          0          0          0         
36Q173           36Q173           36Q169           25.80634237 0.015      0          0          0          0         
36Q146           36Q146           36Q145           25.99243735 0.015      0          0          0          0         
36Q174           36Q174           36Q173           13.85345997 0.015      0          0          0          0         
36Q180           36Q180           36Q175           36.90769592 0.015      0          0          0          0         